
  -OEChem-12082116023D

 41 43  0     0  0  0  0  0  0999 V2000
    3.9073   -5.3871    4.8640 C   0  0  0  0  0  0  0  0  0  0  0  0
    4.8453   -5.8427    3.9502 C   0  0  0  0  0  0  0  0  0  0  0  0
    3.1415   -4.2547    4.5731 C   0  0  0  0  0  0  0  0  0  0  0  0
    5.0111   -5.1688    2.7448 C   0  0  0  0  0  0  0  0  0  0  0  0
    2.8347   -1.7486   -0.6125 C   0  0  0  0  0  0  0  0  0  0  0  0
    1.7278   -0.9433   -0.8590 C   0  0  0  0  0  0  0  0  0  0  0  0
    1.1308   -1.0961    1.4719 C   0  0  0  0  0  0  0  0  0  0  0  0
    3.2926   -3.5399    3.3647 C   0  0  0  0  0  0  0  0  0  0  0  0
    2.2518   -1.9053    1.7596 C   0  0  0  0  0  0  0  0  0  0  0  0
    4.2398   -4.0319    2.4449 C   0  0  0  0  0  0  0  0  0  0  0  0
    3.0959   -2.2352    0.6808 C   0  0  0  0  0  0  0  0  0  0  0  0
    0.8731   -0.6194    0.1837 C   0  0  0  0  0  0  0  0  0  0  0  0
   -2.3199   -1.6772    6.9841 C   0  0  0  0  0  0  0  0  0  0  0  0
   -2.4107   -2.2985    4.5744 C   0  0  0  0  0  0  0  0  0  0  0  0
    0.4632   -2.3029    4.4447 C   0  0  0  0  0  0  0  0  0  0  0  0
    1.8485   -1.7166    4.1859 C   0  0  0  0  0  0  0  0  0  0  0  0
   -0.2484   -1.6152    5.6031 C   0  0  0  0  0  0  0  0  0  0  0  0
    2.5066   -2.3988    3.0641 N   0  0  0  0  0  0  0  0  0  0  0  0
   -1.5615   -2.2699    5.8217 N   0  3  0  0  0  0  0  0  0  0  0  0
    4.5550   -3.2377    0.8814 S   0  0  0  0  0  0  0  0  0  0  0  0
   -0.5103    0.3619   -0.1117 Cl  0  0  0  0  0  0  0  0  0  0  0  0
    3.7623   -5.9122    5.8035 H   0  0  0  0  0  0  0  0  0  0  0  0
    5.4434   -6.7215    4.1716 H   0  0  0  0  0  0  0  0  0  0  0  0
    2.4022   -3.9589    5.3140 H   0  0  0  0  0  0  0  0  0  0  0  0
    5.7510   -5.5427    2.0398 H   0  0  0  0  0  0  0  0  0  0  0  0
    3.4930   -1.9939   -1.4437 H   0  0  0  0  0  0  0  0  0  0  0  0
    1.5454   -0.5825   -1.8676 H   0  0  0  0  0  0  0  0  0  0  0  0
    0.4196   -0.8432    2.2562 H   0  0  0  0  0  0  0  0  0  0  0  0
   -2.5221   -0.6300    6.7516 H   0  0  0  0  0  0  0  0  0  0  0  0
   -3.2481   -2.2401    7.0994 H   0  0  0  0  0  0  0  0  0  0  0  0
   -1.6928   -1.7677    7.8731 H   0  0  0  0  0  0  0  0  0  0  0  0
   -2.6150   -1.2658    4.2859 H   0  0  0  0  0  0  0  0  0  0  0  0
   -1.8466   -2.8189    3.7980 H   0  0  0  0  0  0  0  0  0  0  0  0
   -3.3345   -2.8299    4.8113 H   0  0  0  0  0  0  0  0  0  0  0  0
    0.5451   -3.3790    4.6439 H   0  0  0  0  0  0  0  0  0  0  0  0
   -0.1371   -2.1927    3.5330 H   0  0  0  0  0  0  0  0  0  0  0  0
    1.7562   -0.6530    3.9430 H   0  0  0  0  0  0  0  0  0  0  0  0
    2.4730   -1.7971    5.0820 H   0  0  0  0  0  0  0  0  0  0  0  0
    0.3053   -1.7020    6.5423 H   0  0  0  0  0  0  0  0  0  0  0  0
   -0.4516   -0.5614    5.3909 H   0  0  0  0  0  0  0  0  0  0  0  0
   -1.3849   -3.2586    6.0700 H   0  0  0  0  0  0  0  0  0  0  0  0
  1  2  1  0  0  0  0
  1  3  2  0  0  0  0
  2  4  2  0  0  0  0
  3  8  1  0  0  0  0
  4 10  1  0  0  0  0
  5  6  2  0  0  0  0
  5 11  1  0  0  0  0
  6 12  1  0  0  0  0
  7  9  1  0  0  0  0
  7 12  2  0  0  0  0
  8 10  2  0  0  0  0
  8 18  1  0  0  0  0
  9 11  2  0  0  0  0
  9 18  1  0  0  0  0
 10 20  1  0  0  0  0
 11 20  1  0  0  0  0
 12 21  1  0  0  0  0
 13 19  1  0  0  0  0
 14 19  1  0  0  0  0
 15 16  1  0  0  0  0
 15 17  1  0  0  0  0
 16 18  1  0  0  0  0
 17 19  1  0  0  0  0
  1 22  1  0  0  0  0
  2 23  1  0  0  0  0
  3 24  1  0  0  0  0
  4 25  1  0  0  0  0
  5 26  1  0  0  0  0
  6 27  1  0  0  0  0
  7 28  1  0  0  0  0
 13 29  1  0  0  0  0
 13 30  1  0  0  0  0
 13 31  1  0  0  0  0
 14 32  1  0  0  0  0
 14 33  1  0  0  0  0
 14 34  1  0  0  0  0
 15 35  1  0  0  0  0
 15 36  1  0  0  0  0
 16 37  1  0  0  0  0
 16 38  1  0  0  0  0
 17 39  1  0  0  0  0
 17 40  1  0  0  0  0
 19 41  1  0  0  0  0
M  CHG  1  19   1
M  END
> <OE_AM1_SCF_ENERGY>
216.4247

$$$$
