
  -OEChem-12082116033D

 41 43  0     1  0  0  0  0  0999 V2000
    3.9073   -5.3871    4.8640 C   0  0  0  0  0  0  0  0  0  0  0  0
    0.8731   -0.6194    0.1837 C   0  0  0  0  0  0  0  0  0  0  0  0
    4.8453   -5.8427    3.9502 C   0  0  0  0  0  0  0  0  0  0  0  0
    1.7278   -0.9433   -0.8590 C   0  0  0  0  0  0  0  0  0  0  0  0
    3.1415   -4.2547    4.5731 C   0  0  0  0  0  0  0  0  0  0  0  0
    1.1308   -1.0961    1.4719 C   0  0  0  0  0  0  0  0  0  0  0  0
    5.0111   -5.1688    2.7448 C   0  0  0  0  0  0  0  0  0  0  0  0
    2.8347   -1.7486   -0.6125 C   0  0  0  0  0  0  0  0  0  0  0  0
    3.2926   -3.5399    3.3647 C   0  0  0  0  0  0  0  0  0  0  0  0
    2.2518   -1.9053    1.7596 C   0  0  0  0  0  0  0  0  0  0  0  0
    4.2398   -4.0319    2.4449 C   0  0  0  0  0  0  0  0  0  0  0  0
    3.0959   -2.2352    0.6808 C   0  0  0  0  0  0  0  0  0  0  0  0
    2.2223   -0.4185    6.3562 C   0  0  0  0  0  0  0  0  0  0  0  0
    3.2099    1.1406    4.3098 C   0  0  0  0  0  0  0  0  0  0  0  0
    5.1459   -0.1791    5.1530 C   0  0  0  0  0  0  0  0  0  0  0  0
    1.8485   -1.7166    4.1859 C   0  0  0  0  0  0  0  0  0  0  0  0
    2.8585   -1.1625    5.1897 C   0  0  1  0  0  0  0  0  0  0  0  0
    2.5066   -2.3988    3.0641 N   0  0  0  0  0  0  0  0  0  0  0  0
    3.7934   -0.2367    4.4912 N   0  3  0  0  0  0  0  0  0  0  0  0
    4.5550   -3.2377    0.8814 S   0  0  0  0  0  0  0  0  0  0  0  0
    3.7624   -5.9122    5.8036 H   0  0  0  0  0  0  0  0  0  0  0  0
   -0.0001   -0.0001   -0.0001 H   0  0  0  0  0  0  0  0  0  0  0  0
    5.4432   -6.7214    4.1716 H   0  0  0  0  0  0  0  0  0  0  0  0
    1.5325   -0.5749   -1.8614 H   0  0  0  0  0  0  0  0  0  0  0  0
    2.4024   -3.9590    5.3141 H   0  0  0  0  0  0  0  0  0  0  0  0
    0.4123   -0.8333    2.2449 H   0  0  0  0  0  0  0  0  0  0  0  0
    5.7510   -5.5427    2.0398 H   0  0  0  0  0  0  0  0  0  0  0  0
    3.4927   -1.9935   -1.4440 H   0  0  0  0  0  0  0  0  0  0  0  0
    1.5979    0.4044    5.9932 H   0  0  0  0  0  0  0  0  0  0  0  0
    1.5826   -1.0889    6.9407 H   0  0  0  0  0  0  0  0  0  0  0  0
    2.9726   -0.0010    7.0361 H   0  0  0  0  0  0  0  0  0  0  0  0
    3.0332    1.5616    5.3013 H   0  0  0  0  0  0  0  0  0  0  0  0
    3.9328    1.7391    3.7522 H   0  0  0  0  0  0  0  0  0  0  0  0
    2.2752    1.0371    3.7553 H   0  0  0  0  0  0  0  0  0  0  0  0
    5.0077    0.2158    6.1612 H   0  0  0  0  0  0  0  0  0  0  0  0
    5.5480   -1.1936    5.1803 H   0  0  0  0  0  0  0  0  0  0  0  0
    5.7814    0.4792    4.5576 H   0  0  0  0  0  0  0  0  0  0  0  0
    1.1717   -2.4218    4.6813 H   0  0  0  0  0  0  0  0  0  0  0  0
    1.2312   -0.9016    3.7924 H   0  0  0  0  0  0  0  0  0  0  0  0
    3.4784   -1.9808    5.5721 H   0  0  0  0  0  0  0  0  0  0  0  0
    3.9508   -0.6121    3.5422 H   0  0  0  0  0  0  0  0  0  0  0  0
  1  3  1  0  0  0  0
  1  5  2  0  0  0  0
  2  4  1  0  0  0  0
  2  6  2  0  0  0  0
  3  7  2  0  0  0  0
  4  8  2  0  0  0  0
  5  9  1  0  0  0  0
  6 10  1  0  0  0  0
  7 11  1  0  0  0  0
  8 12  1  0  0  0  0
  9 11  2  0  0  0  0
  9 18  1  0  0  0  0
 10 12  2  0  0  0  0
 10 18  1  0  0  0  0
 11 20  1  0  0  0  0
 12 20  1  0  0  0  0
 13 17  1  0  0  0  0
 14 19  1  0  0  0  0
 15 19  1  0  0  0  0
 16 17  1  0  0  0  0
 16 18  1  0  0  0  0
 17 19  1  0  0  0  0
  1 21  1  0  0  0  0
  2 22  1  0  0  0  0
  3 23  1  0  0  0  0
  4 24  1  0  0  0  0
  5 25  1  0  0  0  0
  6 26  1  0  0  0  0
  7 27  1  0  0  0  0
  8 28  1  0  0  0  0
 13 29  1  0  0  0  0
 13 30  1  0  0  0  0
 13 31  1  0  0  0  0
 14 32  1  0  0  0  0
 14 33  1  0  0  0  0
 14 34  1  0  0  0  0
 15 35  1  0  0  0  0
 15 36  1  0  0  0  0
 15 37  1  0  0  0  0
 16 38  1  0  0  0  0
 16 39  1  0  0  0  0
 17 40  1  0  0  0  0
 19 41  1  0  0  0  0
M  CHG  1  19   1
M  END
> <OE_AM1_SCF_ENERGY>
219.6668

$$$$
