
  -OEChem-11202120343D

 50 53  0     0  0  0  0  0  0999 V2000
   -6.3246    3.3558    4.0937 C   0  0  0  0  0  0  0  0  0  0  0  0
   -6.6406    4.6996    4.2228 C   0  0  0  0  0  0  0  0  0  0  0  0
   -5.6144    2.9095    2.9758 C   0  0  0  0  0  0  0  0  0  0  0  0
   -6.2401    5.5954    3.2371 C   0  0  0  0  0  0  0  0  0  0  0  0
   -2.9778    6.3566   -0.8231 C   0  0  0  0  0  0  0  0  0  0  0  0
   -1.9677    5.7901   -1.5932 C   0  0  0  0  0  0  0  0  0  0  0  0
   -2.6006    3.6127   -0.7739 C   0  0  0  0  0  0  0  0  0  0  0  0
   -5.2031    3.7895    1.9508 C   0  0  0  0  0  0  0  0  0  0  0  0
   -3.6431    4.1534    0.0103 C   0  0  0  0  0  0  0  0  0  0  0  0
   -5.5208    5.1526    2.1127 C   0  0  0  0  0  0  0  0  0  0  0  0
   -3.8064    5.5526   -0.0203 C   0  0  0  0  0  0  0  0  0  0  0  0
   -1.7768    4.4169   -1.5661 C   0  0  0  0  0  0  0  0  0  0  0  0
   -3.8176   -2.0668   -0.7108 C   0  0  0  0  0  0  0  0  0  0  0  0
   -1.9092   -0.5763   -0.7957 C   0  0  0  0  0  0  0  0  0  0  0  0
   -3.6651   -2.3964   -2.1910 C   0  0  0  0  0  0  0  0  0  0  0  0
   -1.7082   -0.8676   -2.2781 C   0  0  0  0  0  0  0  0  0  0  0  0
   -3.4622    1.1050    1.2748 C   0  0  0  0  0  0  0  0  0  0  0  0
   -4.5196    1.9036    0.5155 C   0  0  0  0  0  0  0  0  0  0  0  0
   -3.5080   -0.3964    0.9996 C   0  0  0  0  0  0  0  0  0  0  0  0
   -4.4712    3.3388    0.8232 N   0  0  0  0  0  0  0  0  0  0  0  0
   -3.3233   -0.7136   -0.4160 N   0  0  0  0  0  0  0  0  0  0  0  0
   -2.2343   -2.2306   -2.5810 N   0  3  0  0  0  0  0  0  0  0  0  0
    0.6943    4.7063   -2.6678 F   0  0  0  0  0  0  0  0  0  0  0  0
   -1.0439    3.3121   -3.9400 F   0  0  0  0  0  0  0  0  0  0  0  0
    0.0340    2.3993   -1.7974 F   0  0  0  0  0  0  0  0  0  0  0  0
   -5.0811    6.3860    0.9044 S   0  0  0  0  0  0  0  0  0  0  0  0
   -0.5009    3.6942   -2.5145 S   0  0  0  0  0  0  0  0  0  0  0  0
   -6.6233    2.6496    4.8630 H   0  0  0  0  0  0  0  0  0  0  0  0
   -7.1928    5.0514    5.0888 H   0  0  0  0  0  0  0  0  0  0  0  0
   -5.3703    1.8503    2.9406 H   0  0  0  0  0  0  0  0  0  0  0  0
   -6.4958    6.6463    3.3572 H   0  0  0  0  0  0  0  0  0  0  0  0
   -3.1110    7.4362   -0.8561 H   0  0  0  0  0  0  0  0  0  0  0  0
   -1.3366    6.4291   -2.2043 H   0  0  0  0  0  0  0  0  0  0  0  0
   -2.3963    2.5441   -0.7612 H   0  0  0  0  0  0  0  0  0  0  0  0
   -4.8801   -2.1303   -0.4581 H   0  0  0  0  0  0  0  0  0  0  0  0
   -3.2893   -2.8139   -0.1089 H   0  0  0  0  0  0  0  0  0  0  0  0
   -1.2790   -1.2441   -0.1984 H   0  0  0  0  0  0  0  0  0  0  0  0
   -1.5782    0.4487   -0.6047 H   0  0  0  0  0  0  0  0  0  0  0  0
   -3.9353   -3.4355   -2.4015 H   0  0  0  0  0  0  0  0  0  0  0  0
   -4.2575   -1.7313   -2.8285 H   0  0  0  0  0  0  0  0  0  0  0  0
   -2.2457   -0.1593   -2.9179 H   0  0  0  0  0  0  0  0  0  0  0  0
   -0.6481   -0.8670   -2.5478 H   0  0  0  0  0  0  0  0  0  0  0  0
   -3.5961    1.2808    2.3493 H   0  0  0  0  0  0  0  0  0  0  0  0
   -2.4658    1.4789    1.0091 H   0  0  0  0  0  0  0  0  0  0  0  0
   -4.4076    1.7895   -0.5670 H   0  0  0  0  0  0  0  0  0  0  0  0
   -5.5196    1.5534    0.7905 H   0  0  0  0  0  0  0  0  0  0  0  0
   -4.4836   -0.7987    1.2904 H   0  0  0  0  0  0  0  0  0  0  0  0
   -2.7393   -0.9316    1.5655 H   0  0  0  0  0  0  0  0  0  0  0  0
   -1.6615   -2.9362   -2.0970 H   0  0  0  0  0  0  0  0  0  0  0  0
   -2.1274   -2.4247   -3.5860 H   0  0  0  0  0  0  0  0  0  0  0  0
  1  2  1  0  0  0  0
  1  3  2  0  0  0  0
  2  4  2  0  0  0  0
  3  8  1  0  0  0  0
  4 10  1  0  0  0  0
  5  6  2  0  0  0  0
  5 11  1  0  0  0  0
  6 12  1  0  0  0  0
  7  9  1  0  0  0  0
  7 12  2  0  0  0  0
  8 10  2  0  0  0  0
  8 20  1  0  0  0  0
  9 11  2  0  0  0  0
  9 20  1  0  0  0  0
 10 26  1  0  0  0  0
 11 26  1  0  0  0  0
 12 27  1  0  0  0  0
 13 15  1  0  0  0  0
 13 21  1  0  0  0  0
 14 16  1  0  0  0  0
 14 21  1  0  0  0  0
 15 22  1  0  0  0  0
 16 22  1  0  0  0  0
 17 18  1  0  0  0  0
 17 19  1  0  0  0  0
 18 20  1  0  0  0  0
 19 21  1  0  0  0  0
 23 27  1  0  0  0  0
 24 27  1  0  0  0  0
 25 27  1  0  0  0  0
  1 28  1  0  0  0  0
  2 29  1  0  0  0  0
  3 30  1  0  0  0  0
  4 31  1  0  0  0  0
  5 32  1  0  0  0  0
  6 33  1  0  0  0  0
  7 34  1  0  0  0  0
 13 35  1  0  0  0  0
 13 36  1  0  0  0  0
 14 37  1  0  0  0  0
 14 38  1  0  0  0  0
 15 39  1  0  0  0  0
 15 40  1  0  0  0  0
 16 41  1  0  0  0  0
 16 42  1  0  0  0  0
 17 43  1  0  0  0  0
 17 44  1  0  0  0  0
 18 45  1  0  0  0  0
 18 46  1  0  0  0  0
 19 47  1  0  0  0  0
 19 48  1  0  0  0  0
 22 49  1  0  0  0  0
 22 50  1  0  0  0  0
M  CHG  1  22   1
M  END
> <OE_AM1_SCF_ENERGY>
71.0098

$$$$
