
  -OEChem-08192123113D

 39 39  0     0  0  0  0  0  0999 V2000
   -0.4632   -0.8606    0.4991 C   0  0  0  0  0  0  0  0  0  0  0  0
   -1.7923   -1.1673   -0.2129 C   0  0  0  0  0  0  0  0  0  0  0  0
    0.5308   -2.0286    0.4753 C   0  0  0  0  0  0  0  0  0  0  0  0
   -2.6109   -2.3245    0.3791 C   0  0  0  0  0  0  0  0  0  0  0  0
    1.8331   -1.7674    1.2445 C   0  0  0  0  0  0  0  0  0  0  0  0
   -3.1793   -2.0342    1.7750 C   0  0  0  0  0  0  0  0  0  0  0  0
    1.7226   -1.5792    2.7651 C   0  0  0  0  0  0  0  0  0  0  0  0
   -3.3146   -3.2743    2.6747 C   0  0  0  0  0  0  0  0  0  0  0  0
    1.6825   -2.8612    3.6156 C   0  0  0  0  0  0  0  0  0  0  0  0
   -2.0065   -4.0291    2.9759 C   0  0  0  0  0  0  0  0  0  0  0  0
    0.4973   -3.8134    3.4107 C   0  0  0  0  0  0  0  0  0  0  0  0
   -0.8813   -3.1553    3.5462 C   0  0  0  0  0  0  0  0  0  0  0  0
   -1.1586   -2.8737    4.9822 N   0  3  0  0  0  0  0  0  0  0  0  0
   -0.0001   -0.0000   -0.0001 H   0  0  0  0  0  0  0  0  0  0  0  0
   -0.6657   -0.5377    1.5227 H   0  0  0  0  0  0  0  0  0  0  0  0
   -2.4076   -0.2592   -0.2148 H   0  0  0  0  0  0  0  0  0  0  0  0
   -1.5783   -1.3986   -1.2638 H   0  0  0  0  0  0  0  0  0  0  0  0
    0.0656   -2.9409    0.8439 H   0  0  0  0  0  0  0  0  0  0  0  0
    0.7926   -2.2307   -0.5715 H   0  0  0  0  0  0  0  0  0  0  0  0
   -3.4560   -2.5237   -0.2929 H   0  0  0  0  0  0  0  0  0  0  0  0
   -2.0129   -3.2375    0.3608 H   0  0  0  0  0  0  0  0  0  0  0  0
    2.5351   -2.5844    1.0368 H   0  0  0  0  0  0  0  0  0  0  0  0
    2.2896   -0.8614    0.8249 H   0  0  0  0  0  0  0  0  0  0  0  0
   -2.6010   -1.2667    2.2960 H   0  0  0  0  0  0  0  0  0  0  0  0
   -4.1777   -1.5945    1.6504 H   0  0  0  0  0  0  0  0  0  0  0  0
    2.6249   -1.0369    3.0803 H   0  0  0  0  0  0  0  0  0  0  0  0
    0.8933   -0.9159    3.0254 H   0  0  0  0  0  0  0  0  0  0  0  0
   -3.7744   -2.9649    3.6210 H   0  0  0  0  0  0  0  0  0  0  0  0
   -4.0176   -3.9754    2.2078 H   0  0  0  0  0  0  0  0  0  0  0  0
    2.6063   -3.4262    3.4366 H   0  0  0  0  0  0  0  0  0  0  0  0
    1.7162   -2.5651    4.6715 H   0  0  0  0  0  0  0  0  0  0  0  0
   -2.2245   -4.8561    3.6644 H   0  0  0  0  0  0  0  0  0  0  0  0
   -1.6637   -4.5099    2.0528 H   0  0  0  0  0  0  0  0  0  0  0  0
    0.5990   -4.2764    2.4232 H   0  0  0  0  0  0  0  0  0  0  0  0
    0.5830   -4.6442    4.1235 H   0  0  0  0  0  0  0  0  0  0  0  0
   -0.8740   -2.1846    3.0626 H   0  0  0  0  0  0  0  0  0  0  0  0
   -1.6123   -3.6763    5.4269 H   0  0  0  0  0  0  0  0  0  0  0  0
   -1.7760   -2.0627    5.0782 H   0  0  0  0  0  0  0  0  0  0  0  0
   -0.2896   -2.6768    5.4862 H   0  0  0  0  0  0  0  0  0  0  0  0
  1  2  1  0  0  0  0
  1  3  1  0  0  0  0
  2  4  1  0  0  0  0
  3  5  1  0  0  0  0
  4  6  1  0  0  0  0
  5  7  1  0  0  0  0
  6  8  1  0  0  0  0
  7  9  1  0  0  0  0
  8 10  1  0  0  0  0
  9 11  1  0  0  0  0
 10 12  1  0  0  0  0
 11 12  1  0  0  0  0
 12 13  1  0  0  0  0
  1 14  1  0  0  0  0
  1 15  1  0  0  0  0
  2 16  1  0  0  0  0
  2 17  1  0  0  0  0
  3 18  1  0  0  0  0
  3 19  1  0  0  0  0
  4 20  1  0  0  0  0
  4 21  1  0  0  0  0
  5 22  1  0  0  0  0
  5 23  1  0  0  0  0
  6 24  1  0  0  0  0
  6 25  1  0  0  0  0
  7 26  1  0  0  0  0
  7 27  1  0  0  0  0
  8 28  1  0  0  0  0
  8 29  1  0  0  0  0
  9 30  1  0  0  0  0
  9 31  1  0  0  0  0
 10 32  1  0  0  0  0
 10 33  1  0  0  0  0
 11 34  1  0  0  0  0
 11 35  1  0  0  0  0
 12 36  1  0  0  0  0
 13 37  1  0  0  0  0
 13 38  1  0  0  0  0
 13 39  1  0  0  0  0
M  CHG  1  13   1
M  END
> <OE_AM1_SCF_ENERGY>
80.7943

$$$$
