
  -OEChem-08192123113D

 42 42  0     0  0  0  0  0  0999 V2000
   -0.1784    1.2860    5.1913 C   0  0  0  0  0  0  0  0  0  0  0  0
    0.5095    1.7497    6.3126 C   0  0  0  0  0  0  0  0  0  0  0  0
    1.3001   -0.6212    5.0730 C   0  0  0  0  0  0  0  0  0  0  0  0
    1.9880   -0.1574    6.1943 C   0  0  0  0  0  0  0  0  0  0  0  0
    0.2169    0.1005    4.5715 C   0  0  0  0  0  0  0  0  0  0  0  0
    1.5927    1.0281    6.8141 C   0  0  0  0  0  0  0  0  0  0  0  0
   -1.7548   -1.8291    4.9819 C   0  0  0  0  0  0  0  0  0  0  0  0
   -2.8952    0.1010    3.9091 C   0  0  0  0  0  0  0  0  0  0  0  0
   -2.3259   -1.9101    2.5646 C   0  0  0  0  0  0  0  0  0  0  0  0
    0.5275    0.4238    9.3230 C   0  0  0  0  0  0  0  0  0  0  0  0
    2.8145   -0.5483    9.2924 C   0  0  0  0  0  0  0  0  0  0  0  0
    2.3863    1.5834   10.4961 C   0  0  0  0  0  0  0  0  0  0  0  0
   -0.5225   -0.3990    3.3654 C   0  0  0  0  0  0  0  0  0  0  0  0
    2.3288    1.5255    8.0121 C   0  0  0  0  0  0  0  0  0  0  0  0
   -1.8746   -1.0093    3.7052 N   0  3  0  0  0  0  0  0  0  0  0  0
    2.0211    0.7630    9.2535 N   0  3  0  0  0  0  0  0  0  0  0  0
   -1.0216    1.8544    4.8078 H   0  0  0  0  0  0  0  0  0  0  0  0
    0.1956    2.6750    6.7882 H   0  0  0  0  0  0  0  0  0  0  0  0
    1.6155   -1.5452    4.5955 H   0  0  0  0  0  0  0  0  0  0  0  0
    2.8308   -0.7259    6.5787 H   0  0  0  0  0  0  0  0  0  0  0  0
   -1.0182   -2.6152    4.8061 H   0  0  0  0  0  0  0  0  0  0  0  0
   -1.4307   -1.1587    5.7802 H   0  0  0  0  0  0  0  0  0  0  0  0
   -2.7368   -2.2532    5.2000 H   0  0  0  0  0  0  0  0  0  0  0  0
   -2.9595    0.6702    2.9800 H   0  0  0  0  0  0  0  0  0  0  0  0
   -3.8523   -0.3651    4.1510 H   0  0  0  0  0  0  0  0  0  0  0  0
   -2.5458    0.7292    4.7307 H   0  0  0  0  0  0  0  0  0  0  0  0
   -2.4027   -1.2966    1.6650 H   0  0  0  0  0  0  0  0  0  0  0  0
   -1.5768   -2.6947    2.4420 H   0  0  0  0  0  0  0  0  0  0  0  0
   -3.2955   -2.3321    2.8357 H   0  0  0  0  0  0  0  0  0  0  0  0
   -0.0296    1.3620    9.2947 H   0  0  0  0  0  0  0  0  0  0  0  0
    0.2865   -0.2020    8.4615 H   0  0  0  0  0  0  0  0  0  0  0  0
    0.3493   -0.1103   10.2582 H   0  0  0  0  0  0  0  0  0  0  0  0
    3.8758   -0.2980    9.2426 H   0  0  0  0  0  0  0  0  0  0  0  0
    2.5745   -1.0565   10.2283 H   0  0  0  0  0  0  0  0  0  0  0  0
    2.5119   -1.1476    8.4315 H   0  0  0  0  0  0  0  0  0  0  0  0
    3.4502    1.8205   10.4389 H   0  0  0  0  0  0  0  0  0  0  0  0
    1.7806    2.4916   10.4868 H   0  0  0  0  0  0  0  0  0  0  0  0
    2.1668    0.9742   11.3750 H   0  0  0  0  0  0  0  0  0  0  0  0
   -0.7132    0.4117    2.6540 H   0  0  0  0  0  0  0  0  0  0  0  0
    0.0499   -1.1733    2.8432 H   0  0  0  0  0  0  0  0  0  0  0  0
    3.4168    1.4624    7.8738 H   0  0  0  0  0  0  0  0  0  0  0  0
    2.0876    2.5753    8.2278 H   0  0  0  0  0  0  0  0  0  0  0  0
  1  2  1  0  0  0  0
  1  5  2  0  0  0  0
  2  6  2  0  0  0  0
  3  4  2  0  0  0  0
  3  5  1  0  0  0  0
  4  6  1  0  0  0  0
  5 13  1  0  0  0  0
  6 14  1  0  0  0  0
  7 15  1  0  0  0  0
  8 15  1  0  0  0  0
  9 15  1  0  0  0  0
 10 16  1  0  0  0  0
 11 16  1  0  0  0  0
 12 16  1  0  0  0  0
 13 15  1  0  0  0  0
 14 16  1  0  0  0  0
  1 17  1  0  0  0  0
  2 18  1  0  0  0  0
  3 19  1  0  0  0  0
  4 20  1  0  0  0  0
  7 21  1  0  0  0  0
  7 22  1  0  0  0  0
  7 23  1  0  0  0  0
  8 24  1  0  0  0  0
  8 25  1  0  0  0  0
  8 26  1  0  0  0  0
  9 27  1  0  0  0  0
  9 28  1  0  0  0  0
  9 29  1  0  0  0  0
 10 30  1  0  0  0  0
 10 31  1  0  0  0  0
 10 32  1  0  0  0  0
 11 33  1  0  0  0  0
 11 34  1  0  0  0  0
 11 35  1  0  0  0  0
 12 36  1  0  0  0  0
 12 37  1  0  0  0  0
 12 38  1  0  0  0  0
 13 39  1  0  0  0  0
 13 40  1  0  0  0  0
 14 41  1  0  0  0  0
 14 42  1  0  0  0  0
M  CHG  2  15   1  16   1
M  END
> <OE_AM1_SCF_ENERGY>
394.6548

$$$$
