
  -OEChem-08192123113D

 20 19  0     0  0  0  0  0  0999 V2000
   -0.0384   -0.2215    1.0728 C   0  0  0  0  0  0  0  0  0  0  0  0
    2.3553    0.4716    1.2572 C   0  0  0  0  0  0  0  0  0  0  0  0
    1.7850   -1.9336    0.8916 C   0  0  0  0  0  0  0  0  0  0  0  0
    1.3348   -0.8138    3.1328 C   0  0  0  0  0  0  0  0  0  0  0  0
    1.3450   -0.6404    1.5993 C   0  0  0  0  0  0  0  0  0  0  0  0
    2.6530   -1.2356    3.6658 N   0  3  0  0  0  0  0  0  0  0  0  0
   -0.7926   -0.9847    1.2939 H   0  0  0  0  0  0  0  0  0  0  0  0
   -0.3683    0.7152    1.5366 H   0  0  0  0  0  0  0  0  0  0  0  0
   -0.0303   -0.0595   -0.0102 H   0  0  0  0  0  0  0  0  0  0  0  0
    3.3597    0.2169    1.6142 H   0  0  0  0  0  0  0  0  0  0  0  0
    2.0677    1.4230    1.7190 H   0  0  0  0  0  0  0  0  0  0  0  0
    2.4185    0.6332    0.1750 H   0  0  0  0  0  0  0  0  0  0  0  0
    2.7682   -2.2719    1.2351 H   0  0  0  0  0  0  0  0  0  0  0  0
    1.0776   -2.7482    1.0854 H   0  0  0  0  0  0  0  0  0  0  0  0
    1.8377   -1.7913   -0.1935 H   0  0  0  0  0  0  0  0  0  0  0  0
    0.6188   -1.5814    3.4454 H   0  0  0  0  0  0  0  0  0  0  0  0
    1.0854    0.1237    3.6410 H   0  0  0  0  0  0  0  0  0  0  0  0
    2.5407   -1.8659    4.4672 H   0  0  0  0  0  0  0  0  0  0  0  0
    3.1996   -0.4247    3.9761 H   0  0  0  0  0  0  0  0  0  0  0  0
    3.1979   -1.7286    2.9501 H   0  0  0  0  0  0  0  0  0  0  0  0
  1  5  1  0  0  0  0
  2  5  1  0  0  0  0
  3  5  1  0  0  0  0
  4  5  1  0  0  0  0
  4  6  1  0  0  0  0
  1  7  1  0  0  0  0
  1  8  1  0  0  0  0
  1  9  1  0  0  0  0
  2 10  1  0  0  0  0
  2 11  1  0  0  0  0
  2 12  1  0  0  0  0
  3 13  1  0  0  0  0
  3 14  1  0  0  0  0
  3 15  1  0  0  0  0
  4 16  1  0  0  0  0
  4 17  1  0  0  0  0
  6 18  1  0  0  0  0
  6 19  1  0  0  0  0
  6 20  1  0  0  0  0
M  CHG  1   6   1
M  END
> <OE_AM1_SCF_ENERGY>
121.4352

$$$$
