
  -OEChem-08192123113D

 50 52  0     0  0  0  0  0  0999 V2000
   -0.1569    0.3040   -1.0410 C   0  0  0  0  0  0  0  0  0  0  0  0
   -1.9136   -1.4537   -1.3743 C   0  0  0  0  0  0  0  0  0  0  0  0
    0.5655    0.0356   -3.4309 C   0  0  0  0  0  0  0  0  0  0  0  0
   -1.1950   -1.7243   -3.7611 C   0  0  0  0  0  0  0  0  0  0  0  0
   -1.6245    0.0591   -1.4505 C   0  0  0  0  0  0  0  0  0  0  0  0
    0.7965   -0.4601   -1.9855 C   0  0  0  0  0  0  0  0  0  0  0  0
   -0.9718   -2.2270   -2.3192 C   0  0  0  0  0  0  0  0  0  0  0  0
   -0.9010   -0.2109   -3.8513 C   0  0  0  0  0  0  0  0  0  0  0  0
   -1.8007    0.5859   -2.8878 C   0  0  0  0  0  0  0  0  0  0  0  0
    0.5050   -1.9724   -1.9609 C   0  0  0  0  0  0  0  0  0  0  0  0
   -3.8499   -0.8182   -2.8105 C   0  0  0  0  0  0  0  0  0  0  0  0
   -3.3430    0.5301   -4.8357 C   0  0  0  0  0  0  0  0  0  0  0  0
   -4.0372    1.6586   -2.7330 C   0  0  0  0  0  0  0  0  0  0  0  0
    0.3860   -1.5846    0.4911 C   0  0  0  0  0  0  0  0  0  0  0  0
    2.3307   -2.7861   -0.4840 C   0  0  0  0  0  0  0  0  0  0  0  0
    0.0996   -3.8791   -0.4192 C   0  0  0  0  0  0  0  0  0  0  0  0
   -3.2246    0.4913   -3.3070 N   0  3  0  0  0  0  0  0  0  0  0  0
    0.8230   -2.5423   -0.6244 N   0  3  0  0  0  0  0  0  0  0  0  0
    0.0657    1.3778   -1.0839 H   0  0  0  0  0  0  0  0  0  0  0  0
    0.0000    0.0008    0.0002 H   0  0  0  0  0  0  0  0  0  0  0  0
   -1.7958   -1.8027   -0.3421 H   0  0  0  0  0  0  0  0  0  0  0  0
   -2.9568   -1.6606   -1.6386 H   0  0  0  0  0  0  0  0  0  0  0  0
    0.8017    1.1045   -3.5018 H   0  0  0  0  0  0  0  0  0  0  0  0
    1.2439   -0.4844   -4.1187 H   0  0  0  0  0  0  0  0  0  0  0  0
   -0.5362   -2.2686   -4.4495 H   0  0  0  0  0  0  0  0  0  0  0  0
   -2.2195   -1.9424   -4.0825 H   0  0  0  0  0  0  0  0  0  0  0  0
   -2.2857    0.6001   -0.7636 H   0  0  0  0  0  0  0  0  0  0  0  0
    1.8372   -0.2668   -1.7003 H   0  0  0  0  0  0  0  0  0  0  0  0
   -1.1950   -3.2993   -2.2724 H   0  0  0  0  0  0  0  0  0  0  0  0
   -1.0436    0.1354   -4.8816 H   0  0  0  0  0  0  0  0  0  0  0  0
   -1.5588    1.6544   -2.9352 H   0  0  0  0  0  0  0  0  0  0  0  0
    1.1642   -2.4998   -2.6608 H   0  0  0  0  0  0  0  0  0  0  0  0
   -4.8895   -0.8388   -3.1426 H   0  0  0  0  0  0  0  0  0  0  0  0
   -3.2830   -1.6445   -3.2435 H   0  0  0  0  0  0  0  0  0  0  0  0
   -3.7859   -0.8268   -1.7207 H   0  0  0  0  0  0  0  0  0  0  0  0
   -4.4019    0.4581   -5.0905 H   0  0  0  0  0  0  0  0  0  0  0  0
   -2.9198    1.4758   -5.1797 H   0  0  0  0  0  0  0  0  0  0  0  0
   -2.7845   -0.3183   -5.2357 H   0  0  0  0  0  0  0  0  0  0  0  0
   -5.0696    1.5434   -3.0681 H   0  0  0  0  0  0  0  0  0  0  0  0
   -3.9699    1.6093   -1.6445 H   0  0  0  0  0  0  0  0  0  0  0  0
   -3.6030    2.5860   -3.1115 H   0  0  0  0  0  0  0  0  0  0  0  0
    0.6401   -2.0468    1.4467 H   0  0  0  0  0  0  0  0  0  0  0  0
    0.9239   -0.6446    0.3542 H   0  0  0  0  0  0  0  0  0  0  0  0
   -0.6919   -1.4366    0.4012 H   0  0  0  0  0  0  0  0  0  0  0  0
    2.5106   -3.2024    0.5088 H   0  0  0  0  0  0  0  0  0  0  0  0
    2.6297   -3.4885   -1.2644 H   0  0  0  0  0  0  0  0  0  0  0  0
    2.8370   -1.8265   -0.6047 H   0  0  0  0  0  0  0  0  0  0  0  0
    0.3647   -4.2537    0.5712 H   0  0  0  0  0  0  0  0  0  0  0  0
   -0.9735   -3.6934   -0.4944 H   0  0  0  0  0  0  0  0  0  0  0  0
    0.4351   -4.5639   -1.2004 H   0  0  0  0  0  0  0  0  0  0  0  0
  1  5  1  0  0  0  0
  1  6  1  0  0  0  0
  2  5  1  0  0  0  0
  2  7  1  0  0  0  0
  3  6  1  0  0  0  0
  3  8  1  0  0  0  0
  4  7  1  0  0  0  0
  4  8  1  0  0  0  0
  5  9  1  0  0  0  0
  6 10  1  0  0  0  0
  7 10  1  0  0  0  0
  8  9  1  0  0  0  0
  9 17  1  0  0  0  0
 10 18  1  0  0  0  0
 11 17  1  0  0  0  0
 12 17  1  0  0  0  0
 13 17  1  0  0  0  0
 14 18  1  0  0  0  0
 15 18  1  0  0  0  0
 16 18  1  0  0  0  0
  1 19  1  0  0  0  0
  1 20  1  0  0  0  0
  2 21  1  0  0  0  0
  2 22  1  0  0  0  0
  3 23  1  0  0  0  0
  3 24  1  0  0  0  0
  4 25  1  0  0  0  0
  4 26  1  0  0  0  0
  5 27  1  0  0  0  0
  6 28  1  0  0  0  0
  7 29  1  0  0  0  0
  8 30  1  0  0  0  0
  9 31  1  0  0  0  0
 10 32  1  0  0  0  0
 11 33  1  0  0  0  0
 11 34  1  0  0  0  0
 11 35  1  0  0  0  0
 12 36  1  0  0  0  0
 12 37  1  0  0  0  0
 12 38  1  0  0  0  0
 13 39  1  0  0  0  0
 13 40  1  0  0  0  0
 13 41  1  0  0  0  0
 14 42  1  0  0  0  0
 14 43  1  0  0  0  0
 14 44  1  0  0  0  0
 15 45  1  0  0  0  0
 15 46  1  0  0  0  0
 15 47  1  0  0  0  0
 16 48  1  0  0  0  0
 16 49  1  0  0  0  0
 16 50  1  0  0  0  0
M  CHG  2  17   1  18   1
M  END
> <OE_AM1_SCF_ENERGY>
369.5043

$$$$
