
  -OEChem-08192123113D

 28 29  0     0  0  0  0  0  0999 V2000
    0.7843   -0.5196    0.5399 C   0  0  0  0  0  0  0  0  0  0  0  0
    2.8804   -1.7065    0.5723 C   0  0  0  0  0  0  0  0  0  0  0  0
    1.4267    0.2118   -2.2002 C   0  0  0  0  0  0  0  0  0  0  0  0
    2.6521   -1.8586   -2.3234 C   0  0  0  0  0  0  0  0  0  0  0  0
    0.7101   -0.6752    1.9167 C   0  0  0  0  0  0  0  0  0  0  0  0
    2.7532   -1.8320    1.9483 C   0  0  0  0  0  0  0  0  0  0  0  0
    1.5424    0.3267   -3.5782 C   0  0  0  0  0  0  0  0  0  0  0  0
    2.7367   -1.6914   -3.6983 C   0  0  0  0  0  0  0  0  0  0  0  0
    1.8830   -1.0424   -0.1354 C   0  0  0  0  0  0  0  0  0  0  0  0
    1.9890   -0.8943   -1.5703 C   0  0  0  0  0  0  0  0  0  0  0  0
    1.5790   -1.4653    4.0222 C   0  0  0  0  0  0  0  0  0  0  0  0
    2.2901   -0.4684   -5.7278 C   0  0  0  0  0  0  0  0  0  0  0  0
    1.6847   -1.3190    2.5735 N   0  3  0  0  0  0  0  0  0  0  0  0
    2.1863   -0.6166   -4.2792 N   0  3  0  0  0  0  0  0  0  0  0  0
   -0.0089    0.0028    0.0132 H   0  0  0  0  0  0  0  0  0  0  0  0
    3.7490   -2.1238    0.0715 H   0  0  0  0  0  0  0  0  0  0  0  0
    0.9041    0.9798   -1.6375 H   0  0  0  0  0  0  0  0  0  0  0  0
    3.0997   -2.7321   -1.8586 H   0  0  0  0  0  0  0  0  0  0  0  0
   -0.1148   -0.2951    2.5067 H   0  0  0  0  0  0  0  0  0  0  0  0
    3.4901   -2.3350    2.5625 H   0  0  0  0  0  0  0  0  0  0  0  0
    1.1304    1.1597   -4.1344 H   0  0  0  0  0  0  0  0  0  0  0  0
    3.2364   -2.4011   -4.3462 H   0  0  0  0  0  0  0  0  0  0  0  0
    1.0484   -2.3948    4.2463 H   0  0  0  0  0  0  0  0  0  0  0  0
    2.5733   -1.4950    4.4765 H   0  0  0  0  0  0  0  0  0  0  0  0
    1.0290   -0.6168    4.4392 H   0  0  0  0  0  0  0  0  0  0  0  0
    3.2026    0.0864   -5.9624 H   0  0  0  0  0  0  0  0  0  0  0  0
    2.3261   -1.4492   -6.2103 H   0  0  0  0  0  0  0  0  0  0  0  0
    1.4200    0.0758   -6.1060 H   0  0  0  0  0  0  0  0  0  0  0  0
  1  5  1  0  0  0  0
  1  9  2  0  0  0  0
  2  6  2  0  0  0  0
  2  9  1  0  0  0  0
  3  7  1  0  0  0  0
  3 10  2  0  0  0  0
  4  8  2  0  0  0  0
  4 10  1  0  0  0  0
  5 13  2  0  0  0  0
  6 13  1  0  0  0  0
  7 14  2  0  0  0  0
  8 14  1  0  0  0  0
  9 10  1  0  0  0  0
 11 13  1  0  0  0  0
 12 14  1  0  0  0  0
  1 15  1  0  0  0  0
  2 16  1  0  0  0  0
  3 17  1  0  0  0  0
  4 18  1  0  0  0  0
  5 19  1  0  0  0  0
  6 20  1  0  0  0  0
  7 21  1  0  0  0  0
  8 22  1  0  0  0  0
 11 23  1  0  0  0  0
 11 24  1  0  0  0  0
 11 25  1  0  0  0  0
 12 26  1  0  0  0  0
 12 27  1  0  0  0  0
 12 28  1  0  0  0  0
M  CHG  2  13   1  14   1
M  END
> <OE_AM1_SCF_ENERGY>
435.0323

$$$$
