
  -OEChem-08192123113D

 46 47  0     0  0  0  0  0  0999 V2000
    2.0340   -2.5218    1.8349 C   0  0  0  0  0  0  0  0  0  0  0  0
    0.5905   -0.4920    2.2076 C   0  0  0  0  0  0  0  0  0  0  0  0
   -0.0094   -3.6105   -0.0142 C   0  0  0  0  0  0  0  0  0  0  0  0
   -1.4002   -1.5395    0.3307 C   0  0  0  0  0  0  0  0  0  0  0  0
    2.6806   -2.3132    3.1993 C   0  0  0  0  0  0  0  0  0  0  0  0
    1.2368   -0.2823    3.5720 C   0  0  0  0  0  0  0  0  0  0  0  0
   -0.6565   -3.8184   -1.3785 C   0  0  0  0  0  0  0  0  0  0  0  0
   -2.0482   -1.7468   -1.0332 C   0  0  0  0  0  0  0  0  0  0  0  0
    0.6099   -1.9630    1.7851 C   0  0  0  0  0  0  0  0  0  0  0  0
    0.0085   -2.1348    0.3916 C   0  0  0  0  0  0  0  0  0  0  0  0
    3.6158   -0.0061    2.7664 C   0  0  0  0  0  0  0  0  0  0  0  0
    3.1574   -0.7552    5.0708 C   0  0  0  0  0  0  0  0  0  0  0  0
   -3.0443   -4.0239   -0.5778 C   0  0  0  0  0  0  0  0  0  0  0  0
   -2.5593   -3.3132   -2.8889 C   0  0  0  0  0  0  0  0  0  0  0  0
    2.6623   -0.8408    3.6210 N   0  3  0  0  0  0  0  0  0  0  0  0
   -2.0668   -3.2238   -1.4385 N   0  3  0  0  0  0  0  0  0  0  0  0
    2.6514   -2.0720    1.0487 H   0  0  0  0  0  0  0  0  0  0  0  0
    2.0093   -3.5976    1.6209 H   0  0  0  0  0  0  0  0  0  0  0  0
   -0.4481   -0.1418    2.2555 H   0  0  0  0  0  0  0  0  0  0  0  0
    1.0846    0.1312    1.4531 H   0  0  0  0  0  0  0  0  0  0  0  0
   -0.5220   -4.2121    0.7454 H   0  0  0  0  0  0  0  0  0  0  0  0
    1.0199   -3.9882   -0.0546 H   0  0  0  0  0  0  0  0  0  0  0  0
   -1.3481   -0.4624    0.5327 H   0  0  0  0  0  0  0  0  0  0  0  0
   -2.0315   -1.9642    1.1200 H   0  0  0  0  0  0  0  0  0  0  0  0
    2.1341   -2.8756    3.9661 H   0  0  0  0  0  0  0  0  0  0  0  0
    3.7245   -2.6466    3.1972 H   0  0  0  0  0  0  0  0  0  0  0  0
    1.2869    0.7825    3.8261 H   0  0  0  0  0  0  0  0  0  0  0  0
    0.6598   -0.8012    4.3471 H   0  0  0  0  0  0  0  0  0  0  0  0
   -0.0637   -3.3230   -2.1570 H   0  0  0  0  0  0  0  0  0  0  0  0
   -0.7333   -4.8843   -1.6213 H   0  0  0  0  0  0  0  0  0  0  0  0
   -3.0832   -1.3866   -1.0379 H   0  0  0  0  0  0  0  0  0  0  0  0
   -1.4855   -1.2072   -1.8046 H   0  0  0  0  0  0  0  0  0  0  0  0
   -0.0096   -2.5330    2.4907 H   0  0  0  0  0  0  0  0  0  0  0  0
    0.6448   -1.5891   -0.3182 H   0  0  0  0  0  0  0  0  0  0  0  0
    3.5578    1.0271    3.1137 H   0  0  0  0  0  0  0  0  0  0  0  0
    4.6219   -0.4087    2.8982 H   0  0  0  0  0  0  0  0  0  0  0  0
    3.2927   -0.0894    1.7270 H   0  0  0  0  0  0  0  0  0  0  0  0
    3.1427    0.2953    5.3671 H   0  0  0  0  0  0  0  0  0  0  0  0
    2.4812   -1.3474    5.6904 H   0  0  0  0  0  0  0  0  0  0  0  0
    4.1717   -1.1575    5.1018 H   0  0  0  0  0  0  0  0  0  0  0  0
   -4.0256   -3.5533   -0.6619 H   0  0  0  0  0  0  0  0  0  0  0  0
   -3.0653   -5.0466   -0.9590 H   0  0  0  0  0  0  0  0  0  0  0  0
   -2.6827   -3.9962    0.4519 H   0  0  0  0  0  0  0  0  0  0  0  0
   -3.5642   -2.8886   -2.9271 H   0  0  0  0  0  0  0  0  0  0  0  0
   -1.8681   -2.7428   -3.5123 H   0  0  0  0  0  0  0  0  0  0  0  0
   -2.5675   -4.3668   -3.1747 H   0  0  0  0  0  0  0  0  0  0  0  0
  1  5  1  0  0  0  0
  1  9  1  0  0  0  0
  2  6  1  0  0  0  0
  2  9  1  0  0  0  0
  3  7  1  0  0  0  0
  3 10  1  0  0  0  0
  4  8  1  0  0  0  0
  4 10  1  0  0  0  0
  5 15  1  0  0  0  0
  6 15  1  0  0  0  0
  7 16  1  0  0  0  0
  8 16  1  0  0  0  0
  9 10  1  0  0  0  0
 11 15  1  0  0  0  0
 12 15  1  0  0  0  0
 13 16  1  0  0  0  0
 14 16  1  0  0  0  0
  1 17  1  0  0  0  0
  1 18  1  0  0  0  0
  2 19  1  0  0  0  0
  2 20  1  0  0  0  0
  3 21  1  0  0  0  0
  3 22  1  0  0  0  0
  4 23  1  0  0  0  0
  4 24  1  0  0  0  0
  5 25  1  0  0  0  0
  5 26  1  0  0  0  0
  6 27  1  0  0  0  0
  6 28  1  0  0  0  0
  7 29  1  0  0  0  0
  7 30  1  0  0  0  0
  8 31  1  0  0  0  0
  8 32  1  0  0  0  0
  9 33  1  0  0  0  0
 10 34  1  0  0  0  0
 11 35  1  0  0  0  0
 11 36  1  0  0  0  0
 11 37  1  0  0  0  0
 12 38  1  0  0  0  0
 12 39  1  0  0  0  0
 12 40  1  0  0  0  0
 13 41  1  0  0  0  0
 13 42  1  0  0  0  0
 13 43  1  0  0  0  0
 14 44  1  0  0  0  0
 14 45  1  0  0  0  0
 14 46  1  0  0  0  0
M  CHG  2  15   1  16   1
M  END
> <OE_AM1_SCF_ENERGY>
334.8332

$$$$
