
  -OEChem-08192123183D

 22 23  0     1  0  0  0  0  0999 V2000
    0.9375    0.3588    0.4363 C   0  0  0  0  0  0  0  0  0  0  0  0
    1.1756    1.8497    0.1492 C   0  0  0  0  0  0  0  0  0  0  0  0
    1.9802    1.3561    2.3273 C   0  0  0  0  0  0  0  0  0  0  0  0
   -0.3629    0.9429    2.5005 C   0  0  0  0  0  0  0  0  0  0  0  0
    0.9351    0.2985    1.9740 C   0  0  1  0  0  0  0  0  0  0  0  0
    1.2539    2.4642    1.5590 C   0  0  2  0  0  0  0  0  0  0  0  0
   -0.1592    2.4298    2.1692 C   0  0  2  0  0  0  0  0  0  0  0  0
   -0.2071    3.2350    3.4140 N   0  3  0  0  0  0  0  0  0  0  0  0
   -0.0004    0.0004    0.0004 H   0  0  0  0  0  0  0  0  0  0  0  0
    1.7577   -0.2393    0.0232 H   0  0  0  0  0  0  0  0  0  0  0  0
    2.1219    1.9836   -0.3871 H   0  0  0  0  0  0  0  0  0  0  0  0
    0.3751    2.2850   -0.4574 H   0  0  0  0  0  0  0  0  0  0  0  0
    2.0618    1.5414    3.4025 H   0  0  0  0  0  0  0  0  0  0  0  0
    2.9734    1.1323    1.9231 H   0  0  0  0  0  0  0  0  0  0  0  0
   -1.2535    0.5373    2.0092 H   0  0  0  0  0  0  0  0  0  0  0  0
   -0.4653    0.7684    3.5780 H   0  0  0  0  0  0  0  0  0  0  0  0
    1.1201   -0.7009    2.3730 H   0  0  0  0  0  0  0  0  0  0  0  0
    1.7338    3.4452    1.5736 H   0  0  0  0  0  0  0  0  0  0  0  0
   -0.9320    2.8295    1.5053 H   0  0  0  0  0  0  0  0  0  0  0  0
   -0.2124    2.6303    4.2424 H   0  0  0  0  0  0  0  0  0  0  0  0
   -1.0517    3.8165    3.4421 H   0  0  0  0  0  0  0  0  0  0  0  0
    0.6065    3.8559    3.4811 H   0  0  0  0  0  0  0  0  0  0  0  0
  1  2  1  0  0  0  0
  1  5  1  0  0  0  0
  2  6  1  0  0  0  0
  3  5  1  0  0  0  0
  3  6  1  0  0  0  0
  4  5  1  0  0  0  0
  4  7  1  0  0  0  0
  6  7  1  0  0  0  0
  7  8  1  0  0  0  0
  1  9  1  0  0  0  0
  1 10  1  0  0  0  0
  2 11  1  0  0  0  0
  2 12  1  0  0  0  0
  3 13  1  0  0  0  0
  3 14  1  0  0  0  0
  4 15  1  0  0  0  0
  4 16  1  0  0  0  0
  5 17  1  0  0  0  0
  6 18  1  0  0  0  0
  7 19  1  0  0  0  0
  8 20  1  0  0  0  0
  8 21  1  0  0  0  0
  8 22  1  0  0  0  0
M  CHG  1   8   1
M  END
> <OE_AM1_SCF_ENERGY>
138.8156

$$$$
