
  -OEChem-08192123113D

 20 19  0     0  0  0  0  0  0999 V2000
    0.3691    0.3559    1.8695 C   0  0  0  0  0  0  0  0  0  0  0  0
    1.2962   -1.3519   -0.4973 C   0  0  0  0  0  0  0  0  0  0  0  0
    1.3481    1.6974   -0.6962 C   0  0  0  0  0  0  0  0  0  0  0  0
   -1.3258    0.2318   -0.6858 C   0  0  0  0  0  0  0  0  0  0  0  0
   -2.1180   -0.8942   -0.1287 N   0  3  0  0  0  0  0  0  0  0  0  0
    0.4087    0.2251   -0.0019 Si  0  0  0  0  0  0  0  0  0  0  0  0
   -0.1433    1.2675    2.1917 H   0  0  0  0  0  0  0  0  0  0  0  0
   -0.1551   -0.4953    2.3147 H   0  0  0  0  0  0  0  0  0  0  0  0
    1.3808    0.3781    2.2861 H   0  0  0  0  0  0  0  0  0  0  0  0
    1.3363   -1.4581   -1.5857 H   0  0  0  0  0  0  0  0  0  0  0  0
    2.3249   -1.3610   -0.1242 H   0  0  0  0  0  0  0  0  0  0  0  0
    0.7889   -2.2344   -0.0955 H   0  0  0  0  0  0  0  0  0  0  0  0
    1.3937    1.6581   -1.7889 H   0  0  0  0  0  0  0  0  0  0  0  0
    0.8680    2.6404   -0.4171 H   0  0  0  0  0  0  0  0  0  0  0  0
    2.3758    1.7236   -0.3212 H   0  0  0  0  0  0  0  0  0  0  0  0
   -1.8631    1.1482   -0.4251 H   0  0  0  0  0  0  0  0  0  0  0  0
   -1.3358    0.1105   -1.7728 H   0  0  0  0  0  0  0  0  0  0  0  0
   -1.7071   -1.8082   -0.3621 H   0  0  0  0  0  0  0  0  0  0  0  0
   -2.2000   -0.8393    0.8956 H   0  0  0  0  0  0  0  0  0  0  0  0
   -3.0747   -0.8893   -0.5074 H   0  0  0  0  0  0  0  0  0  0  0  0
  1  6  1  0  0  0  0
  2  6  1  0  0  0  0
  3  6  1  0  0  0  0
  4  5  1  0  0  0  0
  4  6  1  0  0  0  0
  1  7  1  0  0  0  0
  1  8  1  0  0  0  0
  1  9  1  0  0  0  0
  2 10  1  0  0  0  0
  2 11  1  0  0  0  0
  2 12  1  0  0  0  0
  3 13  1  0  0  0  0
  3 14  1  0  0  0  0
  3 15  1  0  0  0  0
  4 16  1  0  0  0  0
  4 17  1  0  0  0  0
  5 18  1  0  0  0  0
  5 19  1  0  0  0  0
  5 20  1  0  0  0  0
M  CHG  1   5   1
M  END
> <OE_AM1_SCF_ENERGY>
100.3682

$$$$
