
  -OEChem-08192123113D

 27 27  0     0  0  0  0  0  0999 V2000
   -0.2962    0.8865   -0.5713 C   0  0  0  0  0  0  0  0  0  0  0  0
   -0.0946    0.6835   -2.0735 C   0  0  0  0  0  0  0  0  0  0  0  0
   -1.7013    1.3421   -0.1720 C   0  0  0  0  0  0  0  0  0  0  0  0
   -0.0911   -0.7733   -2.5349 C   0  0  0  0  0  0  0  0  0  0  0  0
   -2.8300    0.3227   -0.3423 C   0  0  0  0  0  0  0  0  0  0  0  0
   -1.1851   -1.6892   -1.9879 C   0  0  0  0  0  0  0  0  0  0  0  0
   -3.1803    0.0032   -1.7969 C   0  0  0  0  0  0  0  0  0  0  0  0
   -2.6388   -1.3353   -2.3051 C   0  0  0  0  0  0  0  0  0  0  0  0
   -2.8454   -1.3829   -3.7833 N   0  3  0  0  0  0  0  0  0  0  0  0
    0.0009    0.0005    0.0002 H   0  0  0  0  0  0  0  0  0  0  0  0
    0.3898    1.6840   -0.2551 H   0  0  0  0  0  0  0  0  0  0  0  0
   -0.8118    1.2711   -2.6544 H   0  0  0  0  0  0  0  0  0  0  0  0
    0.8869    1.0983   -2.3410 H   0  0  0  0  0  0  0  0  0  0  0  0
   -1.6672    1.6194    0.8898 H   0  0  0  0  0  0  0  0  0  0  0  0
   -1.9547    2.2625   -0.7132 H   0  0  0  0  0  0  0  0  0  0  0  0
   -0.1000   -0.7945   -3.6313 H   0  0  0  0  0  0  0  0  0  0  0  0
    0.8726   -1.2124   -2.2431 H   0  0  0  0  0  0  0  0  0  0  0  0
   -2.6218   -0.5857    0.2332 H   0  0  0  0  0  0  0  0  0  0  0  0
   -3.7225    0.7657    0.1200 H   0  0  0  0  0  0  0  0  0  0  0  0
   -0.9906   -2.6972   -2.3815 H   0  0  0  0  0  0  0  0  0  0  0  0
   -1.0649   -1.7968   -0.9042 H   0  0  0  0  0  0  0  0  0  0  0  0
   -4.2761   -0.0468   -1.8704 H   0  0  0  0  0  0  0  0  0  0  0  0
   -2.8947    0.8323   -2.4526 H   0  0  0  0  0  0  0  0  0  0  0  0
   -3.2719   -2.1375   -1.9061 H   0  0  0  0  0  0  0  0  0  0  0  0
   -2.0768   -1.8824   -4.2355 H   0  0  0  0  0  0  0  0  0  0  0  0
   -2.8878   -0.4367   -4.1681 H   0  0  0  0  0  0  0  0  0  0  0  0
   -3.7199   -1.8630   -4.0064 H   0  0  0  0  0  0  0  0  0  0  0  0
  1  2  1  0  0  0  0
  1  3  1  0  0  0  0
  2  4  1  0  0  0  0
  3  5  1  0  0  0  0
  4  6  1  0  0  0  0
  5  7  1  0  0  0  0
  6  8  1  0  0  0  0
  7  8  1  0  0  0  0
  8  9  1  0  0  0  0
  1 10  1  0  0  0  0
  1 11  1  0  0  0  0
  2 12  1  0  0  0  0
  2 13  1  0  0  0  0
  3 14  1  0  0  0  0
  3 15  1  0  0  0  0
  4 16  1  0  0  0  0
  4 17  1  0  0  0  0
  5 18  1  0  0  0  0
  5 19  1  0  0  0  0
  6 20  1  0  0  0  0
  6 21  1  0  0  0  0
  7 22  1  0  0  0  0
  7 23  1  0  0  0  0
  8 24  1  0  0  0  0
  9 25  1  0  0  0  0
  9 26  1  0  0  0  0
  9 27  1  0  0  0  0
M  CHG  1   9   1
M  END
> <OE_AM1_SCF_ENERGY>
110.3642

$$$$
