
  -OEChem-08192123113D

 36 36  0     0  0  0  0  0  0999 V2000
    2.2624   -2.2584   -2.1875 C   0  0  0  0  0  0  0  0  0  0  0  0
    0.9991   -2.6844   -1.7777 C   0  0  0  0  0  0  0  0  0  0  0  0
    3.1189   -1.6389   -1.2773 C   0  0  0  0  0  0  0  0  0  0  0  0
    0.5920   -2.4908   -0.4576 C   0  0  0  0  0  0  0  0  0  0  0  0
    2.7118   -1.4453    0.0427 C   0  0  0  0  0  0  0  0  0  0  0  0
    1.4484   -1.8712    0.4526 C   0  0  0  0  0  0  0  0  0  0  0  0
   -0.6102   -0.0453    0.9069 C   0  0  0  0  0  0  0  0  0  0  0  0
    1.3380    0.7777    2.2123 C   0  0  0  0  0  0  0  0  0  0  0  0
    1.0112   -1.6624    1.8725 C   0  0  0  0  0  0  0  0  0  0  0  0
    0.3587   -0.7466    4.5575 C   0  0  0  0  0  0  0  0  0  0  0  0
   -0.5225   -0.3990    3.3654 C   0  0  0  0  0  0  0  0  0  0  0  0
   -0.4059   -0.8180    5.8723 C   0  0  0  0  0  0  0  0  0  0  0  0
    0.3041   -0.3323    2.0893 N   0  3  0  0  0  0  0  0  0  0  0  0
    1.6471   -0.1712    7.2137 O   0  5  0  0  0  0  0  0  0  0  0  0
   -0.2385   -1.2687    8.3625 O   0  0  0  0  0  0  0  0  0  0  0  0
    1.1804   -2.5591    6.8126 O   0  0  0  0  0  0  0  0  0  0  0  0
    0.6617   -1.2513    7.2105 S   0  0  0  0  0  0  0  0  0  0  0  0
    2.5797   -2.4105   -3.2151 H   0  0  0  0  0  0  0  0  0  0  0  0
    0.3325   -3.1678   -2.4859 H   0  0  0  0  0  0  0  0  0  0  0  0
    4.1030   -1.3081   -1.5958 H   0  0  0  0  0  0  0  0  0  0  0  0
   -0.3942   -2.8258   -0.1472 H   0  0  0  0  0  0  0  0  0  0  0  0
    3.3857   -0.9615    0.7448 H   0  0  0  0  0  0  0  0  0  0  0  0
   -1.3388   -0.8555    0.8439 H   0  0  0  0  0  0  0  0  0  0  0  0
   -1.1022    0.9119    1.0897 H   0  0  0  0  0  0  0  0  0  0  0  0
    0.0087   -0.0033    0.0086 H   0  0  0  0  0  0  0  0  0  0  0  0
    1.9774    0.5454    3.0659 H   0  0  0  0  0  0  0  0  0  0  0  0
    1.9141    0.8020    1.2853 H   0  0  0  0  0  0  0  0  0  0  0  0
    0.8032    1.7168    2.3668 H   0  0  0  0  0  0  0  0  0  0  0  0
    0.3140   -2.4448    2.1912 H   0  0  0  0  0  0  0  0  0  0  0  0
    1.8667   -1.6790    2.5563 H   0  0  0  0  0  0  0  0  0  0  0  0
    0.8326   -1.7171    4.3645 H   0  0  0  0  0  0  0  0  0  0  0  0
    1.1759   -0.0194    4.6443 H   0  0  0  0  0  0  0  0  0  0  0  0
   -1.0116    0.5725    3.4830 H   0  0  0  0  0  0  0  0  0  0  0  0
   -1.2821   -1.1697    3.2045 H   0  0  0  0  0  0  0  0  0  0  0  0
   -1.1914   -1.5785    5.8350 H   0  0  0  0  0  0  0  0  0  0  0  0
   -0.8552    0.1436    6.1352 H   0  0  0  0  0  0  0  0  0  0  0  0
  1  2  2  0  0  0  0
  1  3  1  0  0  0  0
  2  4  1  0  0  0  0
  3  5  2  0  0  0  0
  4  6  2  0  0  0  0
  5  6  1  0  0  0  0
  6  9  1  0  0  0  0
  7 13  1  0  0  0  0
  8 13  1  0  0  0  0
  9 13  1  0  0  0  0
 10 11  1  0  0  0  0
 10 12  1  0  0  0  0
 11 13  1  0  0  0  0
 12 17  1  0  0  0  0
 14 17  1  0  0  0  0
 15 17  2  0  0  0  0
 16 17  2  0  0  0  0
  1 18  1  0  0  0  0
  2 19  1  0  0  0  0
  3 20  1  0  0  0  0
  4 21  1  0  0  0  0
  5 22  1  0  0  0  0
  7 23  1  0  0  0  0
  7 24  1  0  0  0  0
  7 25  1  0  0  0  0
  8 26  1  0  0  0  0
  8 27  1  0  0  0  0
  8 28  1  0  0  0  0
  9 29  1  0  0  0  0
  9 30  1  0  0  0  0
 10 31  1  0  0  0  0
 10 32  1  0  0  0  0
 11 33  1  0  0  0  0
 11 34  1  0  0  0  0
 12 35  1  0  0  0  0
 12 36  1  0  0  0  0
M  CHG  2  13   1  14  -1
M  END
> <OE_AM1_SCF_ENERGY>
-44.0601

$$$$
