
  -OEChem-08192123113D

 30 32  0     1  0  0  0  0  0999 V2000
   -0.5125    0.7898   -0.5629 C   0  0  0  0  0  0  0  0  0  0  0  0
   -2.7177    1.8984   -1.0224 C   0  0  0  0  0  0  0  0  0  0  0  0
   -0.9910    1.7197   -2.8451 C   0  0  0  0  0  0  0  0  0  0  0  0
   -2.6069   -0.5841   -0.6775 C   0  0  0  0  0  0  0  0  0  0  0  0
   -0.8872   -0.7623   -2.4962 C   0  0  0  0  0  0  0  0  0  0  0  0
   -3.0924    0.3427   -2.9633 C   0  0  0  0  0  0  0  0  0  0  0  0
   -2.0185    0.7687   -0.2425 C   0  0  1  0  0  0  0  0  0  0  0  0
   -0.2861    0.5886   -2.0726 C   0  0  2  0  0  0  0  0  0  0  0  0
   -2.4969    1.6920   -2.5312 C   0  0  0  0  0  0  0  0  0  0  0  0
   -2.3949   -0.7915   -2.1886 C   0  0  0  0  0  0  0  0  0  0  0  0
   -3.1709    2.7844   -3.2771 N   0  3  0  0  0  0  0  0  0  0  0  0
   -2.9435   -2.0462   -2.5654 O   0  0  0  0  0  0  0  0  0  0  0  0
   -0.0758    1.7440   -0.2434 H   0  0  0  0  0  0  0  0  0  0  0  0
    0.0001    0.0001    0.0001 H   0  0  0  0  0  0  0  0  0  0  0  0
   -3.7893    1.8993   -0.7853 H   0  0  0  0  0  0  0  0  0  0  0  0
   -2.3158    2.8683   -0.7023 H   0  0  0  0  0  0  0  0  0  0  0  0
   -0.5545    2.6857   -2.5608 H   0  0  0  0  0  0  0  0  0  0  0  0
   -0.8180    1.5921   -3.9214 H   0  0  0  0  0  0  0  0  0  0  0  0
   -2.1403   -1.4034   -0.1152 H   0  0  0  0  0  0  0  0  0  0  0  0
   -3.6769   -0.6316   -0.4369 H   0  0  0  0  0  0  0  0  0  0  0  0
   -0.7158   -0.9374   -3.5663 H   0  0  0  0  0  0  0  0  0  0  0  0
   -0.3808   -1.5865   -1.9773 H   0  0  0  0  0  0  0  0  0  0  0  0
   -4.1740    0.3086   -2.7748 H   0  0  0  0  0  0  0  0  0  0  0  0
   -2.9712    0.1853   -4.0435 H   0  0  0  0  0  0  0  0  0  0  0  0
   -2.1709    0.9114    0.8331 H   0  0  0  0  0  0  0  0  0  0  0  0
    0.7872    0.6027   -2.2920 H   0  0  0  0  0  0  0  0  0  0  0  0
   -2.4848    3.4387   -3.6672 H   0  0  0  0  0  0  0  0  0  0  0  0
   -3.7991    3.3129   -2.6626 H   0  0  0  0  0  0  0  0  0  0  0  0
   -3.7274    2.4090   -4.0522 H   0  0  0  0  0  0  0  0  0  0  0  0
   -2.7928   -2.1437   -3.5199 H   0  0  0  0  0  0  0  0  0  0  0  0
  1  7  1  0  0  0  0
  1  8  1  0  0  0  0
  2  7  1  0  0  0  0
  2  9  1  0  0  0  0
  3  8  1  0  0  0  0
  3  9  1  0  0  0  0
  4  7  1  0  0  0  0
  4 10  1  0  0  0  0
  5  8  1  0  0  0  0
  5 10  1  0  0  0  0
  6  9  1  0  0  0  0
  6 10  1  0  0  0  0
  9 11  1  0  0  0  0
 10 12  1  0  0  0  0
  1 13  1  0  0  0  0
  1 14  1  0  0  0  0
  2 15  1  0  0  0  0
  2 16  1  0  0  0  0
  3 17  1  0  0  0  0
  3 18  1  0  0  0  0
  4 19  1  0  0  0  0
  4 20  1  0  0  0  0
  5 21  1  0  0  0  0
  5 22  1  0  0  0  0
  6 23  1  0  0  0  0
  6 24  1  0  0  0  0
  7 25  1  0  0  0  0
  8 26  1  0  0  0  0
 11 27  1  0  0  0  0
 11 28  1  0  0  0  0
 11 29  1  0  0  0  0
 12 30  1  0  0  0  0
M  CHG  1  11   1
M  END
> <OE_AM1_SCF_ENERGY>
69.3480

$$$$
